LAMMPS (29 Oct 2020)
units 		real
dimension 	3
processors 	* * *
boundary 	p p p
atom_style 	charge
atom_modify	map array

#pair_style     hybrid/overlay coul/long 10.0 table linear 10000
pair_style     table linear 10000
read_data       tmp.dat
Reading data file ...
  orthogonal box = (-0.42652611 -0.42652611 -0.42652611) to (19.151951 19.151951 19.151951)
  reading atoms ...
  450 atoms
  reading velocities ...
  450 velocities
#pair_coeff     * * coul/long
pair_coeff     2 2 ../ff_fitting.table OO
  Should only be flagged at inflection points (src/pair_table.cpp:461)
pair_coeff     1 2 ../ff_fitting.table SiO
  Should only be flagged at inflection points (src/pair_table.cpp:461)
pair_coeff     1 1 ../ff_fitting.table SiSi
  Should only be flagged at inflection points (src/pair_table.cpp:461)

#kspace_style    pppm 1.0e-5
neighbor        2.0 bin
neigh_modify    every 1 check yes
timestep	1

dump 1 all custom 100000 sim.xyz id type x y z

thermo_style    custom step temp pe press pxx pyy pzz pxy pxz pyz lx ly lz xy yz xz density
thermo          100000

##generate velocity
velocity        all create 3000 350
#velocity       all scale 0

#NVT run
fix              1 all npt temp 3000 0.01 100 iso 0 0 1000
run              30000000
  update every 1 steps, delay 10 steps, check yes
Step Temp PotEng Press Pxx Pyy Pzz Pxy Pxz Pyz Lx Ly Lz Xy Yz Xz Density
0         3000   -39923.927   -4451.1413   -14049.456    3271.5155   -2575.4837    1779.7367    -4922.189   -3626.6993    19.578477    19.578477    19.578477            0            0            0    1.9941047
Averages over the last 151 of 301 rows, steps 15000000 to 30000000:
Temp PotEng Press Pxx Pyy Pzz Pxy Pxz Pyz Lx Ly Lz Xy Yz Xz Density
750.335 -45435.8 13.3041 5135.74 -2768.33 -2327.5 1661.15 -4652.35 -3636.73 18.8432 18.8432 18.8432 0 0 0 2.23682
Loop time of 3702.59 on 24 procs for 30000000 steps with 450 atoms

unfix            1

#fix             1 all nve
#fix             2 all temp/rescale 10 1 2000 1 1
#run             1000
#unfix           1
#unfix           2

write_data      end.dat
System init for write_data ...
